392
polyisoprene.pdb
C         23.06000       84.97000       33.71000
C         22.99000       83.82000       34.59000
C         24.02000       83.51000       35.37000
C         23.96000       82.35000       36.25000
C         25.22000       84.34000       35.34000
H         22.17000       85.11000       34.32000
H         22.82000       84.12000       33.07000
H         24.07000       85.32000       33.48000
H         22.10000       83.20000       34.61000
H         23.29000       81.54000       36.54000
H         23.14000       82.48000       36.95000
H         23.81000       81.45000       35.66000
H         25.64000       84.33000       34.34000
H         24.97000       85.35000       35.63000
C         26.26000       84.03000       36.12000
C         26.19000       82.88000       37.00000
C         27.22000       82.57000       37.77000
C         27.16000       81.42000       38.66000
C         28.42000       83.40000       37.75000
H         25.36000       84.17000       36.73000
H         26.02000       83.18000       35.48000
H         25.30000       82.26000       37.02000
H         26.48000       80.61000       38.95000
H         26.33000       81.54000       39.36000
H         27.01000       80.52000       38.06000
H         28.84000       83.40000       36.74000
H         28.17000       84.42000       38.04000
C         29.46000       83.10000       38.53000
C         29.38000       81.94000       39.40000
C         30.42000       81.64000       40.18000
C         30.35000       80.48000       41.06000
C         31.62000       82.46000       40.15000
H         28.56000       83.23000       39.14000
H         29.21000       82.25000       37.89000
H         28.49000       81.32000       39.42000
H         29.68000       79.67000       41.35000
H         29.53000       80.60000       41.76000
H         30.20000       79.58000       40.47000
H         32.04000       82.46000       39.15000
H         31.37000       83.48000       40.44000
C         32.65000       82.16000       40.93000
C         32.58000       81.00000       41.81000
C         33.62000       80.70000       42.59000
C         33.55000       79.54000       43.47000
C         34.82000       81.53000       42.56000
H         31.76000       82.30000       41.54000
H         32.41000       81.31000       40.29000
H         31.69000       80.39000       41.83000
H         32.88000       78.73000       43.76000
H         32.73000       79.67000       44.17000
H         33.40000       78.64000       42.88000
H         35.24000       81.52000       41.56000
H         34.56000       82.54000       42.85000
C         35.85000       81.22000       43.34000
C         35.78000       80.07000       44.21000
C         36.81000       79.76000       44.99000
C         36.75000       78.61000       45.87000
C         38.01000       80.59000       44.97000
H         34.96000       81.36000       43.95000
H         35.61000       80.37000       42.70000
H         34.89000       79.45000       44.24000
H         36.08000       77.80000       46.16000
H         35.92000       78.73000       46.57000
H         36.60000       77.71000       45.28000
H         38.43000       80.59000       43.96000
H         37.76000       81.61000       45.26000
C         39.05000       80.29000       45.75000
C         38.98000       79.13000       46.62000
C         40.01000       78.83000       47.40000
C         39.95000       77.67000       48.28000
C         41.21000       79.65000       47.37000
H         38.15000       80.42000       46.36000
H         38.81000       79.44000       45.11000
H         38.09000       78.51000       46.64000
H         39.27000       76.86000       48.57000
H         39.12000       77.79000       48.98000
H         39.80000       76.77000       47.69000
H         41.63000       79.65000       46.37000
H         40.96000       80.67000       47.66000
C         42.25000       79.35000       48.15000
C         42.17000       78.19000       49.03000
C         43.21000       77.89000       49.81000
C         43.14000       76.73000       50.69000
C         44.41000       78.71000       49.78000
H         41.35000       79.49000       48.76000
H         42.00000       78.50000       47.51000
H         41.28000       77.58000       49.05000
H         42.47000       75.92000       50.98000
H         42.32000       76.85000       51.39000
H         42.99000       75.83000       50.09000
H         44.83000       78.71000       48.78000
H         44.16000       79.73000       50.07000
C         45.44000       78.41000       50.56000
C         45.37000       77.26000       51.43000
C         46.41000       76.95000       52.21000
C         46.34000       75.80000       53.09000
C         47.61000       77.78000       52.19000
H         44.55000       78.55000       51.17000
H         45.20000       77.56000       49.92000
H         44.48000       76.64000       51.46000
H         45.67000       74.98000       53.38000
H         45.52000       75.92000       53.79000
H         46.19000       74.90000       52.50000
H         48.03000       77.77000       51.18000
H         47.35000       78.80000       52.47000
C         48.64000       77.47000       52.96000
C         48.57000       76.32000       53.84000
C         49.60000       76.02000       54.62000
C         49.54000       74.86000       55.50000
C         50.80000       76.84000       54.59000
H         47.75000       77.61000       53.57000
H         48.40000       76.62000       52.33000
H         47.68000       75.70000       53.86000
H         48.87000       74.05000       55.79000
H         48.71000       74.98000       56.20000
H         49.39000       73.96000       54.91000
H         51.22000       76.84000       53.59000
H         50.55000       77.86000       54.88000
C         51.84000       76.54000       55.37000
C         51.77000       75.38000       56.25000
C         52.80000       75.08000       57.03000
C         52.74000       73.92000       57.91000
C         54.00000       75.90000       57.00000
H         50.94000       76.67000       55.98000
H         51.59000       75.69000       54.73000
H         50.87000       74.77000       56.27000
H         52.06000       73.11000       58.20000
H         51.91000       74.04000       58.61000
H         52.59000       73.02000       57.31000
H         54.42000       75.90000       55.99000
H         53.75000       76.92000       57.29000
C         55.04000       75.60000       57.78000
C         54.96000       74.44000       58.65000
C         56.00000       74.14000       59.43000
C         55.93000       72.98000       60.31000
C         57.20000       74.97000       59.40000
H         54.14000       75.74000       58.39000
H         54.79000       74.75000       57.14000
H         54.07000       73.83000       58.68000
H         55.26000       72.17000       60.60000
H         55.11000       73.11000       61.01000
H         55.78000       72.08000       59.72000
H         57.62000       74.96000       58.40000
H         56.95000       75.98000       59.69000
C         58.23000       74.66000       60.18000
C         58.16000       73.51000       61.06000
C         59.20000       73.20000       61.84000
C         59.13000       72.05000       62.72000
C         60.40000       74.03000       61.81000
H         57.34000       74.80000       60.79000
H         57.99000       73.81000       59.54000
H         57.27000       72.89000       61.08000
H         58.46000       71.24000       63.01000
H         58.31000       72.17000       63.42000
H         58.98000       71.15000       62.13000
H         60.82000       74.03000       60.81000
H         60.14000       75.05000       62.10000
C         61.43000       73.73000       62.59000
C         61.36000       72.57000       63.47000
C         62.39000       72.27000       64.24000
C         62.33000       71.11000       65.13000
C         63.59000       73.09000       64.22000
H         60.54000       73.86000       63.20000
H         61.19000       72.88000       61.95000
H         60.47000       71.95000       63.49000
H         61.66000       70.30000       65.41000
H         61.50000       71.23000       65.82000
H         62.18000       70.21000       64.53000
H         64.01000       73.09000       63.21000
H         63.34000       74.11000       64.51000
C         64.63000       72.79000       65.00000
C         64.56000       71.63000       65.87000
C         65.59000       71.33000       66.65000
C         65.53000       70.17000       67.53000
C         66.79000       72.16000       66.62000
H         63.73000       72.93000       65.61000
H         64.38000       71.94000       64.36000
H         63.66000       71.02000       65.89000
H         64.85000       69.36000       67.82000
H         64.70000       70.30000       68.23000
H         65.38000       69.27000       66.94000
H         67.21000       72.15000       65.62000
H         66.54000       73.17000       66.91000
C         67.83000       71.85000       67.40000
C         67.75000       70.70000       68.28000
C         68.79000       70.39000       69.06000
C         68.72000       69.24000       69.94000
C         69.99000       71.22000       69.03000
H         66.93000       71.99000       68.01000
H         67.58000       71.00000       66.76000
H         66.86000       70.08000       68.30000
H         68.05000       68.43000       70.23000
H         67.90000       69.36000       70.64000
H         68.57000       68.34000       69.34000
H         70.41000       71.22000       68.03000
H         69.74000       72.24000       69.32000
C         71.02000       70.92000       69.81000
C         70.95000       69.76000       70.68000
C         71.99000       69.46000       71.46000
C         71.92000       68.30000       72.34000
C         73.19000       70.28000       71.44000
H         70.13000       71.05000       70.42000
H         70.78000       70.07000       69.17000
H         70.06000       69.14000       70.71000
H         71.25000       67.49000       72.63000
H         71.10000       68.42000       73.04000
H         71.77000       67.40000       71.75000
H         73.61000       70.28000       70.43000
H         72.93000       71.30000       71.73000
C         74.22000       69.98000       72.22000
C         74.15000       68.82000       73.09000
C         75.18000       68.52000       73.87000
C         75.12000       67.36000       74.75000
C         76.38000       69.34000       73.84000
H         73.33000       70.12000       72.82000
H         73.98000       69.13000       71.58000
H         73.26000       68.21000       73.11000
H         74.45000       66.55000       75.04000
H         74.29000       67.48000       75.45000
H         74.97000       66.46000       74.16000
H         76.80000       69.34000       72.84000
H         76.13000       70.36000       74.13000
C         77.42000       69.04000       74.62000
C         77.35000       67.89000       75.50000
C         78.38000       67.58000       76.28000
C         78.32000       66.43000       77.16000
C         79.58000       68.41000       76.25000
H         76.52000       69.18000       75.23000
H         77.17000       68.19000       73.98000
H         76.45000       67.27000       75.52000
H         77.64000       65.61000       77.45000
H         77.49000       66.55000       77.86000
H         78.17000       65.53000       76.56000
H         80.00000       68.40000       75.25000
H         79.33000       69.43000       76.54000
C         80.62000       68.10000       77.03000
C         80.54000       66.95000       77.90000
C         81.58000       66.65000       78.68000
C         81.51000       65.49000       79.56000
C         82.78000       67.47000       78.66000
H         79.72000       68.24000       77.64000
H         80.37000       67.25000       76.39000
H         79.65000       66.33000       77.93000
H         80.84000       64.68000       79.85000
H         80.69000       65.61000       80.26000
H         81.36000       64.59000       78.97000
H         83.20000       67.47000       77.65000
H         82.53000       68.49000       78.94000
C         83.81000       67.17000       79.43000
C         83.74000       66.01000       80.31000
C         84.78000       65.71000       81.09000
C         84.71000       64.55000       81.97000
C         85.98000       66.53000       81.06000
H         82.92000       67.30000       80.04000
H         83.57000       66.32000       78.79000
H         82.85000       65.40000       80.33000
H         84.04000       63.74000       82.26000
H         83.89000       64.67000       82.67000
H         84.56000       63.65000       81.38000
H         86.40000       66.53000       80.06000
H         85.72000       67.55000       81.35000
C         87.01000       66.23000       81.84000
C         86.94000       65.07000       82.72000
C         87.97000       64.77000       83.49000
C         87.91000       63.61000       84.38000
C         89.17000       65.60000       83.47000
H         86.12000       66.37000       82.45000
H         86.77000       65.38000       81.20000
H         86.05000       64.46000       82.74000
H         87.24000       62.80000       84.67000
H         87.08000       63.74000       85.08000
H         87.76000       62.71000       83.78000
H         89.59000       65.59000       82.46000
H         88.92000       66.61000       83.76000
C         90.21000       65.29000       84.25000
C         90.14000       64.14000       85.12000
C         91.17000       63.83000       85.90000
C         91.11000       62.68000       86.78000
C         92.37000       64.66000       85.87000
H         89.31000       65.43000       84.86000
H         89.96000       64.44000       83.61000
H         89.24000       63.52000       85.14000
H         90.43000       61.87000       87.07000
H         90.28000       62.80000       87.48000
H         90.95000       61.78000       86.19000
H         92.79000       64.66000       84.87000
H         92.12000       65.68000       86.16000
C         93.41000       64.36000       86.65000
C         93.33000       63.20000       87.53000
C         94.37000       62.90000       88.31000
C         94.30000       61.74000       89.19000
C         95.57000       63.72000       88.28000
H         92.51000       64.49000       87.26000
H         93.16000       63.51000       86.01000
H         92.44000       62.58000       87.55000
H         93.63000       60.93000       89.48000
H         93.48000       61.86000       89.89000
H         94.15000       60.84000       88.60000
H         95.99000       63.72000       87.28000
H         95.31000       64.74000       88.57000
C         96.60000       63.42000       89.06000
C         96.53000       62.26000       89.93000
C         97.57000       61.96000       90.71000
C         97.50000       60.80000       91.60000
C         98.77000       62.79000       90.69000
H         95.71000       63.56000       89.67000
H         96.36000       62.57000       88.42000
H         95.64000       61.65000       89.96000
H         96.83000       59.99000       91.88000
H         96.68000       60.93000       92.29000
H         97.35000       59.90000       91.00000
H         99.19000       62.78000       89.68000
H         98.51000       63.80000       90.98000
C         99.80000       62.48000       91.47000
C         99.73000       61.33000       92.34000
C        100.76000       61.02000       93.12000
C        100.70000       59.87000       94.00000
C        101.96000       61.85000       93.09000
H         98.91000       62.62000       92.08000
H         99.56000       61.63000       90.83000
H         98.84000       60.71000       92.36000
H        100.02000       59.06000       94.29000
H         99.87000       59.99000       94.70000
H        100.55000       58.97000       93.41000
H        102.38000       61.85000       92.09000
H        101.71000       62.87000       93.38000
C        103.00000       61.55000       93.87000
C        102.93000       60.39000       94.75000
C        103.96000       60.09000       95.53000
C        103.90000       58.93000       96.41000
C        105.16000       60.91000       95.50000
H        102.10000       61.68000       94.48000
H        102.75000       60.70000       93.23000
H        102.03000       59.77000       94.77000
H        103.22000       58.12000       96.70000
H        103.07000       59.05000       97.11000
H        103.74000       58.03000       95.81000
H        105.58000       60.91000       94.50000
H        104.91000       61.93000       95.79000
C        106.20000       60.61000       96.28000
C        106.12000       59.45000       97.15000
C        107.16000       59.15000       97.93000
C        107.09000       57.99000       98.81000
C        108.36000       59.97000       97.91000
H        105.30000       60.75000       96.89000
H        105.95000       59.76000       95.64000
H        105.23000       58.84000       97.18000
H        106.42000       57.18000       99.10000
H        106.27000       58.11000       99.51000
H        106.94000       57.09000       98.22000
H        108.78000       59.97000       96.90000
H        108.10000       60.99000       98.19000
C        109.39000       59.67000       98.68000
C        109.32000       58.52000       99.56000
C        110.36000       58.21000      100.34000
C        110.29000       57.06000      101.22000
C        111.56000       59.04000      100.31000
H        108.50000       59.81000       99.29000
H        109.15000       58.82000       98.05000
H        108.43000       57.90000       99.58000
H        109.62000       56.24000      101.51000
H        109.47000       57.18000      101.92000
H        110.14000       56.16000      100.63000
H        111.98000       59.03000       99.31000
H        111.30000       60.06000      100.60000
C        112.59000       58.73000      101.09000
C        112.52000       57.58000      101.97000
C        113.55000       57.28000      102.75000
C        113.49000       56.12000      103.63000
C        114.75000       58.10000      102.72000
H        111.70000       58.87000      101.70000
H        112.35000       57.88000      100.45000
H        111.63000       56.96000      101.99000
H        112.81000       55.31000      103.92000
H        112.66000       56.24000      104.33000
H        113.34000       55.22000      103.03000
H        115.17000       58.10000      101.71000
H        114.50000       59.12000      103.01000
C        115.79000       57.80000      103.50000
C        115.72000       56.64000      104.37000
C        116.75000       56.34000      105.15000
C        116.69000       55.18000      106.03000
C        117.95000       57.16000      105.13000
H        114.89000       57.93000      104.11000
H        115.54000       56.95000      102.86000
H        114.82000       56.03000      104.40000
H        116.01000       54.37000      106.32000
H        115.86000       55.30000      106.73000
H        116.53000       54.28000      105.44000
H        118.37000       57.16000      104.12000
H        117.70000       58.18000      105.41000
H        118.57000       57.78000      105.77000
