17
one molecule pentane
C          1.00000        1.00000        0.00000
C         -0.52000        1.00000        0.00000
C         -1.07900        1.00000        1.42300
C         -2.60700        1.00200        1.41900
C         -3.16500        1.00400        2.83400
H          1.37800        0.99900       -1.02700
H          1.39100        0.11200        0.50700
H          1.39100        1.88900        0.50500
H         -0.87900        0.11700       -0.54100
H         -0.87900        1.88300       -0.54100
H         -0.71100        1.88200        1.96100
H         -0.71300        0.11700        1.96000
H         -2.97900        0.11900        0.88700
H         -2.97700        1.88500        0.88600
H         -2.83800        0.11600        3.38500
H         -4.26000        1.00400        2.80800
H         -2.83600        1.89100        3.38300
